# generated using pymatgen
data_Na374(ClO)125
_symmetry_space_group_name_H-M   'P 1'
_cell_length_a   22.50500000
_cell_length_b   22.50500000
_cell_length_c   22.50500000
_cell_angle_alpha   90.00000000
_cell_angle_beta   90.00000000
_cell_angle_gamma   90.00000000
_symmetry_Int_Tables_number   1
_chemical_formula_structural   Na374(ClO)125
_chemical_formula_sum   'Na374 Cl125 O125'
_cell_volume   11398.22043763
_cell_formula_units_Z   1
loop_
 _symmetry_equiv_pos_site_id
 _symmetry_equiv_pos_as_xyz
  1  'x, y, z'
loop_
 _atom_site_type_symbol
 _atom_site_label
 _atom_site_symmetry_multiplicity
 _atom_site_fract_x
 _atom_site_fract_y
 _atom_site_fract_z
 _atom_site_occupancy
  Na  Na0  1  0.10000000  0.10000000  0.00000000  1
  Na  Na1  1  0.10000000  0.10000000  0.20000000  1
  Na  Na2  1  0.10000000  0.10000000  0.40000000  1
  Na  Na3  1  0.10000000  0.10000000  0.60000000  1
  Na  Na4  1  0.10000000  0.10000000  0.80000000  1
  Na  Na5  1  0.10000000  0.30000000  0.00000000  1
  Na  Na6  1  0.10000000  0.30000000  0.20000000  1
  Na  Na7  1  0.10000000  0.30000000  0.40000000  1
  Na  Na8  1  0.10000000  0.30000000  0.60000000  1
  Na  Na9  1  0.10000000  0.30000000  0.80000000  1
  Na  Na10  1  0.10000000  0.50000000  0.00000000  1
  Na  Na11  1  0.10000000  0.50000000  0.20000000  1
  Na  Na12  1  0.10000000  0.50000000  0.40000000  1
  Na  Na13  1  0.10000000  0.50000000  0.60000000  1
  Na  Na14  1  0.10000000  0.50000000  0.80000000  1
  Na  Na15  1  0.10000000  0.70000000  0.00000000  1
  Na  Na16  1  0.10000000  0.70000000  0.20000000  1
  Na  Na17  1  0.10000000  0.70000000  0.40000000  1
  Na  Na18  1  0.10000000  0.70000000  0.60000000  1
  Na  Na19  1  0.10000000  0.70000000  0.80000000  1
  Na  Na20  1  0.10000000  0.90000000  0.00000000  1
  Na  Na21  1  0.10000000  0.90000000  0.20000000  1
  Na  Na22  1  0.10000000  0.90000000  0.40000000  1
  Na  Na23  1  0.10000000  0.90000000  0.60000000  1
  Na  Na24  1  0.10000000  0.90000000  0.80000000  1
  Na  Na25  1  0.30000000  0.10000000  0.00000000  1
  Na  Na26  1  0.30000000  0.10000000  0.20000000  1
  Na  Na27  1  0.30000000  0.10000000  0.40000000  1
  Na  Na28  1  0.30000000  0.10000000  0.60000000  1
  Na  Na29  1  0.30000000  0.10000000  0.80000000  1
  Na  Na30  1  0.30000000  0.30000000  0.00000000  1
  Na  Na31  1  0.30000000  0.30000000  0.20000000  1
  Na  Na32  1  0.30000000  0.30000000  0.40000000  1
  Na  Na33  1  0.30000000  0.30000000  0.60000000  1
  Na  Na34  1  0.30000000  0.30000000  0.80000000  1
  Na  Na35  1  0.30000000  0.50000000  0.00000000  1
  Na  Na36  1  0.30000000  0.50000000  0.20000000  1
  Na  Na37  1  0.30000000  0.50000000  0.40000000  1
  Na  Na38  1  0.30000000  0.50000000  0.60000000  1
  Na  Na39  1  0.30000000  0.50000000  0.80000000  1
  Na  Na40  1  0.30000000  0.70000000  0.00000000  1
  Na  Na41  1  0.30000000  0.70000000  0.20000000  1
  Na  Na42  1  0.30000000  0.70000000  0.40000000  1
  Na  Na43  1  0.30000000  0.70000000  0.60000000  1
  Na  Na44  1  0.30000000  0.70000000  0.80000000  1
  Na  Na45  1  0.30000000  0.90000000  0.00000000  1
  Na  Na46  1  0.30000000  0.90000000  0.20000000  1
  Na  Na47  1  0.30000000  0.90000000  0.40000000  1
  Na  Na48  1  0.30000000  0.90000000  0.60000000  1
  Na  Na49  1  0.30000000  0.90000000  0.80000000  1
  Na  Na50  1  0.50000000  0.10000000  0.00000000  1
  Na  Na51  1  0.50000000  0.10000000  0.20000000  1
  Na  Na52  1  0.50000000  0.10000000  0.40000000  1
  Na  Na53  1  0.50000000  0.10000000  0.60000000  1
  Na  Na54  1  0.50000000  0.10000000  0.80000000  1
  Na  Na55  1  0.50000000  0.30000000  0.00000000  1
  Na  Na56  1  0.50000000  0.30000000  0.20000000  1
  Na  Na57  1  0.50000000  0.30000000  0.40000000  1
  Na  Na58  1  0.50000000  0.30000000  0.60000000  1
  Na  Na59  1  0.50000000  0.30000000  0.80000000  1
  Na  Na60  1  0.50000000  0.50000000  0.00000000  1
  Na  Na61  1  0.50000000  0.50000000  0.20000000  1
  Na  Na62  1  0.50000000  0.50000000  0.40000000  1
  Na  Na63  1  0.50000000  0.50000000  0.60000000  1
  Na  Na64  1  0.50000000  0.50000000  0.80000000  1
  Na  Na65  1  0.50000000  0.70000000  0.00000000  1
  Na  Na66  1  0.50000000  0.70000000  0.20000000  1
  Na  Na67  1  0.50000000  0.70000000  0.40000000  1
  Na  Na68  1  0.50000000  0.70000000  0.60000000  1
  Na  Na69  1  0.50000000  0.70000000  0.80000000  1
  Na  Na70  1  0.50000000  0.90000000  0.00000000  1
  Na  Na71  1  0.50000000  0.90000000  0.20000000  1
  Na  Na72  1  0.50000000  0.90000000  0.40000000  1
  Na  Na73  1  0.50000000  0.90000000  0.60000000  1
  Na  Na74  1  0.50000000  0.90000000  0.80000000  1
  Na  Na75  1  0.70000000  0.10000000  0.00000000  1
  Na  Na76  1  0.70000000  0.10000000  0.20000000  1
  Na  Na77  1  0.70000000  0.10000000  0.40000000  1
  Na  Na78  1  0.70000000  0.10000000  0.60000000  1
  Na  Na79  1  0.70000000  0.10000000  0.80000000  1
  Na  Na80  1  0.70000000  0.30000000  0.00000000  1
  Na  Na81  1  0.70000000  0.30000000  0.20000000  1
  Na  Na82  1  0.70000000  0.30000000  0.40000000  1
  Na  Na83  1  0.70000000  0.30000000  0.60000000  1
  Na  Na84  1  0.70000000  0.30000000  0.80000000  1
  Na  Na85  1  0.70000000  0.50000000  0.00000000  1
  Na  Na86  1  0.70000000  0.50000000  0.20000000  1
  Na  Na87  1  0.70000000  0.50000000  0.40000000  1
  Na  Na88  1  0.70000000  0.50000000  0.60000000  1
  Na  Na89  1  0.70000000  0.50000000  0.80000000  1
  Na  Na90  1  0.70000000  0.70000000  0.00000000  1
  Na  Na91  1  0.70000000  0.70000000  0.20000000  1
  Na  Na92  1  0.70000000  0.70000000  0.40000000  1
  Na  Na93  1  0.70000000  0.70000000  0.60000000  1
  Na  Na94  1  0.70000000  0.70000000  0.80000000  1
  Na  Na95  1  0.70000000  0.90000000  0.00000000  1
  Na  Na96  1  0.70000000  0.90000000  0.20000000  1
  Na  Na97  1  0.70000000  0.90000000  0.40000000  1
  Na  Na98  1  0.70000000  0.90000000  0.60000000  1
  Na  Na99  1  0.70000000  0.90000000  0.80000000  1
  Na  Na100  1  0.90000000  0.10000000  0.00000000  1
  Na  Na101  1  0.90000000  0.10000000  0.20000000  1
  Na  Na102  1  0.90000000  0.10000000  0.40000000  1
  Na  Na103  1  0.90000000  0.10000000  0.60000000  1
  Na  Na104  1  0.90000000  0.10000000  0.80000000  1
  Na  Na105  1  0.90000000  0.30000000  0.00000000  1
  Na  Na106  1  0.90000000  0.30000000  0.20000000  1
  Na  Na107  1  0.90000000  0.30000000  0.40000000  1
  Na  Na108  1  0.90000000  0.30000000  0.60000000  1
  Na  Na109  1  0.90000000  0.30000000  0.80000000  1
  Na  Na110  1  0.90000000  0.50000000  0.00000000  1
  Na  Na111  1  0.90000000  0.50000000  0.20000000  1
  Na  Na112  1  0.90000000  0.50000000  0.40000000  1
  Na  Na113  1  0.90000000  0.50000000  0.60000000  1
  Na  Na114  1  0.90000000  0.50000000  0.80000000  1
  Na  Na115  1  0.90000000  0.70000000  0.00000000  1
  Na  Na116  1  0.90000000  0.70000000  0.20000000  1
  Na  Na117  1  0.90000000  0.70000000  0.40000000  1
  Na  Na118  1  0.90000000  0.70000000  0.60000000  1
  Na  Na119  1  0.90000000  0.70000000  0.80000000  1
  Na  Na120  1  0.90000000  0.90000000  0.00000000  1
  Na  Na121  1  0.90000000  0.90000000  0.20000000  1
  Na  Na122  1  0.90000000  0.90000000  0.40000000  1
  Na  Na123  1  0.90000000  0.90000000  0.60000000  1
  Na  Na124  1  0.90000000  0.90000000  0.80000000  1
  Na  Na125  1  0.10000000  0.00000000  0.10000000  1
  Na  Na126  1  0.10000000  0.00000000  0.30000000  1
  Na  Na127  1  0.10000000  0.00000000  0.50000000  1
  Na  Na128  1  0.10000000  0.00000000  0.70000000  1
  Na  Na129  1  0.10000000  0.00000000  0.90000000  1
  Na  Na130  1  0.10000000  0.20000000  0.10000000  1
  Na  Na131  1  0.10000000  0.20000000  0.30000000  1
  Na  Na132  1  0.10000000  0.20000000  0.50000000  1
  Na  Na133  1  0.10000000  0.20000000  0.70000000  1
  Na  Na134  1  0.10000000  0.20000000  0.90000000  1
  Na  Na135  1  0.10000000  0.40000000  0.10000000  1
  Na  Na136  1  0.10000000  0.40000000  0.30000000  1
  Na  Na137  1  0.10000000  0.40000000  0.50000000  1
  Na  Na138  1  0.10000000  0.40000000  0.70000000  1
  Na  Na139  1  0.10000000  0.40000000  0.90000000  1
  Na  Na140  1  0.10000000  0.60000000  0.10000000  1
  Na  Na141  1  0.10000000  0.60000000  0.30000000  1
  Na  Na142  1  0.10000000  0.60000000  0.50000000  1
  Na  Na143  1  0.10000000  0.60000000  0.70000000  1
  Na  Na144  1  0.10000000  0.60000000  0.90000000  1
  Na  Na145  1  0.10000000  0.80000000  0.10000000  1
  Na  Na146  1  0.10000000  0.80000000  0.30000000  1
  Na  Na147  1  0.10000000  0.80000000  0.50000000  1
  Na  Na148  1  0.10000000  0.80000000  0.70000000  1
  Na  Na149  1  0.10000000  0.80000000  0.90000000  1
  Na  Na150  1  0.30000000  0.00000000  0.10000000  1
  Na  Na151  1  0.30000000  0.00000000  0.30000000  1
  Na  Na152  1  0.30000000  0.00000000  0.50000000  1
  Na  Na153  1  0.30000000  0.00000000  0.70000000  1
  Na  Na154  1  0.30000000  0.00000000  0.90000000  1
  Na  Na155  1  0.30000000  0.20000000  0.10000000  1
  Na  Na156  1  0.30000000  0.20000000  0.30000000  1
  Na  Na157  1  0.30000000  0.20000000  0.50000000  1
  Na  Na158  1  0.30000000  0.20000000  0.70000000  1
  Na  Na159  1  0.30000000  0.20000000  0.90000000  1
  Na  Na160  1  0.30000000  0.40000000  0.10000000  1
  Na  Na161  1  0.30000000  0.40000000  0.30000000  1
  Na  Na162  1  0.30000000  0.40000000  0.50000000  1
  Na  Na163  1  0.30000000  0.40000000  0.70000000  1
  Na  Na164  1  0.30000000  0.40000000  0.90000000  1
  Na  Na165  1  0.30000000  0.60000000  0.10000000  1
  Na  Na166  1  0.30000000  0.60000000  0.30000000  1
  Na  Na167  1  0.30000000  0.60000000  0.50000000  1
  Na  Na168  1  0.30000000  0.60000000  0.70000000  1
  Na  Na169  1  0.30000000  0.60000000  0.90000000  1
  Na  Na170  1  0.30000000  0.80000000  0.10000000  1
  Na  Na171  1  0.30000000  0.80000000  0.30000000  1
  Na  Na172  1  0.30000000  0.80000000  0.50000000  1
  Na  Na173  1  0.30000000  0.80000000  0.70000000  1
  Na  Na174  1  0.30000000  0.80000000  0.90000000  1
  Na  Na175  1  0.50000000  0.00000000  0.10000000  1
  Na  Na176  1  0.50000000  0.00000000  0.30000000  1
  Na  Na177  1  0.50000000  0.00000000  0.50000000  1
  Na  Na178  1  0.50000000  0.00000000  0.70000000  1
  Na  Na179  1  0.50000000  0.00000000  0.90000000  1
  Na  Na180  1  0.50000000  0.20000000  0.10000000  1
  Na  Na181  1  0.50000000  0.20000000  0.30000000  1
  Na  Na182  1  0.50000000  0.20000000  0.50000000  1
  Na  Na183  1  0.50000000  0.20000000  0.70000000  1
  Na  Na184  1  0.50000000  0.20000000  0.90000000  1
  Na  Na185  1  0.50000000  0.40000000  0.10000000  1
  Na  Na186  1  0.50000000  0.40000000  0.30000000  1
  Na  Na187  1  0.50000000  0.40000000  0.50000000  1
  Na  Na188  1  0.50000000  0.40000000  0.70000000  1
  Na  Na189  1  0.50000000  0.40000000  0.90000000  1
  Na  Na190  1  0.50000000  0.60000000  0.10000000  1
  Na  Na191  1  0.50000000  0.60000000  0.30000000  1
  Na  Na192  1  0.50000000  0.60000000  0.50000000  1
  Na  Na193  1  0.50000000  0.60000000  0.70000000  1
  Na  Na194  1  0.50000000  0.60000000  0.90000000  1
  Na  Na195  1  0.50000000  0.80000000  0.10000000  1
  Na  Na196  1  0.50000000  0.80000000  0.30000000  1
  Na  Na197  1  0.50000000  0.80000000  0.50000000  1
  Na  Na198  1  0.50000000  0.80000000  0.70000000  1
  Na  Na199  1  0.50000000  0.80000000  0.90000000  1
  Na  Na200  1  0.70000000  0.00000000  0.10000000  1
  Na  Na201  1  0.70000000  0.00000000  0.30000000  1
  Na  Na202  1  0.70000000  0.00000000  0.50000000  1
  Na  Na203  1  0.70000000  0.00000000  0.70000000  1
  Na  Na204  1  0.70000000  0.00000000  0.90000000  1
  Na  Na205  1  0.70000000  0.20000000  0.10000000  1
  Na  Na206  1  0.70000000  0.20000000  0.30000000  1
  Na  Na207  1  0.70000000  0.20000000  0.50000000  1
  Na  Na208  1  0.70000000  0.20000000  0.70000000  1
  Na  Na209  1  0.70000000  0.20000000  0.90000000  1
  Na  Na210  1  0.70000000  0.40000000  0.10000000  1
  Na  Na211  1  0.70000000  0.40000000  0.30000000  1
  Na  Na212  1  0.70000000  0.40000000  0.50000000  1
  Na  Na213  1  0.70000000  0.40000000  0.70000000  1
  Na  Na214  1  0.70000000  0.40000000  0.90000000  1
  Na  Na215  1  0.70000000  0.60000000  0.10000000  1
  Na  Na216  1  0.70000000  0.60000000  0.30000000  1
  Na  Na217  1  0.70000000  0.60000000  0.50000000  1
  Na  Na218  1  0.70000000  0.60000000  0.70000000  1
  Na  Na219  1  0.70000000  0.60000000  0.90000000  1
  Na  Na220  1  0.70000000  0.80000000  0.10000000  1
  Na  Na221  1  0.70000000  0.80000000  0.30000000  1
  Na  Na222  1  0.70000000  0.80000000  0.50000000  1
  Na  Na223  1  0.70000000  0.80000000  0.70000000  1
  Na  Na224  1  0.70000000  0.80000000  0.90000000  1
  Na  Na225  1  0.90000000  0.00000000  0.10000000  1
  Na  Na226  1  0.90000000  0.00000000  0.30000000  1
  Na  Na227  1  0.90000000  0.00000000  0.50000000  1
  Na  Na228  1  0.90000000  0.00000000  0.70000000  1
  Na  Na229  1  0.90000000  0.00000000  0.90000000  1
  Na  Na230  1  0.90000000  0.20000000  0.10000000  1
  Na  Na231  1  0.90000000  0.20000000  0.30000000  1
  Na  Na232  1  0.90000000  0.20000000  0.50000000  1
  Na  Na233  1  0.90000000  0.20000000  0.70000000  1
  Na  Na234  1  0.90000000  0.20000000  0.90000000  1
  Na  Na235  1  0.90000000  0.40000000  0.10000000  1
  Na  Na236  1  0.90000000  0.40000000  0.30000000  1
  Na  Na237  1  0.90000000  0.40000000  0.50000000  1
  Na  Na238  1  0.90000000  0.40000000  0.70000000  1
  Na  Na239  1  0.90000000  0.40000000  0.90000000  1
  Na  Na240  1  0.90000000  0.60000000  0.10000000  1
  Na  Na241  1  0.90000000  0.60000000  0.30000000  1
  Na  Na242  1  0.90000000  0.60000000  0.50000000  1
  Na  Na243  1  0.90000000  0.60000000  0.70000000  1
  Na  Na244  1  0.90000000  0.60000000  0.90000000  1
  Na  Na245  1  0.90000000  0.80000000  0.10000000  1
  Na  Na246  1  0.90000000  0.80000000  0.30000000  1
  Na  Na247  1  0.90000000  0.80000000  0.50000000  1
  Na  Na248  1  0.90000000  0.80000000  0.70000000  1
  Na  Na249  1  0.90000000  0.80000000  0.90000000  1
  Na  Na250  1  0.00000000  0.10000000  0.10000000  1
  Na  Na251  1  0.00000000  0.10000000  0.30000000  1
  Na  Na252  1  0.00000000  0.10000000  0.50000000  1
  Na  Na253  1  0.00000000  0.10000000  0.70000000  1
  Na  Na254  1  0.00000000  0.10000000  0.90000000  1
  Na  Na255  1  0.00000000  0.30000000  0.10000000  1
  Na  Na256  1  0.00000000  0.30000000  0.30000000  1
  Na  Na257  1  0.00000000  0.30000000  0.50000000  1
  Na  Na258  1  0.00000000  0.30000000  0.70000000  1
  Na  Na259  1  0.00000000  0.30000000  0.90000000  1
  Na  Na260  1  0.00000000  0.50000000  0.10000000  1
  Na  Na261  1  0.00000000  0.50000000  0.30000000  1
  Na  Na262  1  0.00000000  0.50000000  0.50000000  1
  Na  Na263  1  0.00000000  0.50000000  0.70000000  1
  Na  Na264  1  0.00000000  0.50000000  0.90000000  1
  Na  Na265  1  0.00000000  0.70000000  0.10000000  1
  Na  Na266  1  0.00000000  0.70000000  0.30000000  1
  Na  Na267  1  0.00000000  0.70000000  0.50000000  1
  Na  Na268  1  0.00000000  0.70000000  0.70000000  1
  Na  Na269  1  0.00000000  0.70000000  0.90000000  1
  Na  Na270  1  0.00000000  0.90000000  0.10000000  1
  Na  Na271  1  0.00000000  0.90000000  0.30000000  1
  Na  Na272  1  0.00000000  0.90000000  0.50000000  1
  Na  Na273  1  0.00000000  0.90000000  0.70000000  1
  Na  Na274  1  0.00000000  0.90000000  0.90000000  1
  Na  Na275  1  0.20000000  0.10000000  0.10000000  1
  Na  Na276  1  0.20000000  0.10000000  0.30000000  1
  Na  Na277  1  0.20000000  0.10000000  0.50000000  1
  Na  Na278  1  0.20000000  0.10000000  0.70000000  1
  Na  Na279  1  0.20000000  0.10000000  0.90000000  1
  Na  Na280  1  0.20000000  0.30000000  0.10000000  1
  Na  Na281  1  0.20000000  0.30000000  0.30000000  1
  Na  Na282  1  0.20000000  0.30000000  0.50000000  1
  Na  Na283  1  0.20000000  0.30000000  0.70000000  1
  Na  Na284  1  0.20000000  0.30000000  0.90000000  1
  Na  Na285  1  0.20000000  0.50000000  0.10000000  1
  Na  Na286  1  0.20000000  0.50000000  0.30000000  1
  Na  Na287  1  0.20000000  0.50000000  0.50000000  1
  Na  Na288  1  0.20000000  0.50000000  0.70000000  1
  Na  Na289  1  0.20000000  0.50000000  0.90000000  1
  Na  Na290  1  0.20000000  0.70000000  0.10000000  1
  Na  Na291  1  0.20000000  0.70000000  0.30000000  1
  Na  Na292  1  0.20000000  0.70000000  0.50000000  1
  Na  Na293  1  0.20000000  0.70000000  0.70000000  1
  Na  Na294  1  0.20000000  0.70000000  0.90000000  1
  Na  Na295  1  0.20000000  0.90000000  0.10000000  1
  Na  Na296  1  0.20000000  0.90000000  0.30000000  1
  Na  Na297  1  0.20000000  0.90000000  0.50000000  1
  Na  Na298  1  0.20000000  0.90000000  0.70000000  1
  Na  Na299  1  0.20000000  0.90000000  0.90000000  1
  Na  Na300  1  0.40000000  0.10000000  0.10000000  1
  Na  Na301  1  0.40000000  0.10000000  0.30000000  1
  Na  Na302  1  0.40000000  0.10000000  0.50000000  1
  Na  Na303  1  0.40000000  0.10000000  0.70000000  1
  Na  Na304  1  0.40000000  0.10000000  0.90000000  1
  Na  Na305  1  0.40000000  0.30000000  0.10000000  1
  Na  Na306  1  0.40000000  0.30000000  0.30000000  1
  Na  Na307  1  0.40000000  0.30000000  0.50000000  1
  Na  Na308  1  0.40000000  0.30000000  0.70000000  1
  Na  Na309  1  0.40000000  0.30000000  0.90000000  1
  Na  Na310  1  0.40000000  0.50000000  0.10000000  1
  Na  Na311  1  0.40000000  0.50000000  0.30000000  1
  Na  Na312  1  0.40000000  0.50000000  0.50000000  1
  Na  Na313  1  0.40000000  0.50000000  0.70000000  1
  Na  Na314  1  0.40000000  0.50000000  0.90000000  1
  Na  Na315  1  0.40000000  0.70000000  0.10000000  1
  Na  Na316  1  0.40000000  0.70000000  0.30000000  1
  Na  Na317  1  0.40000000  0.70000000  0.50000000  1
  Na  Na318  1  0.40000000  0.70000000  0.70000000  1
  Na  Na319  1  0.40000000  0.70000000  0.90000000  1
  Na  Na320  1  0.40000000  0.90000000  0.10000000  1
  Na  Na321  1  0.40000000  0.90000000  0.30000000  1
  Na  Na322  1  0.40000000  0.90000000  0.50000000  1
  Na  Na323  1  0.40000000  0.90000000  0.70000000  1
  Na  Na324  1  0.40000000  0.90000000  0.90000000  1
  Na  Na325  1  0.60000000  0.10000000  0.10000000  1
  Na  Na326  1  0.60000000  0.10000000  0.30000000  1
  Na  Na327  1  0.60000000  0.10000000  0.50000000  1
  Na  Na328  1  0.60000000  0.10000000  0.70000000  1
  Na  Na329  1  0.60000000  0.10000000  0.90000000  1
  Na  Na330  1  0.60000000  0.30000000  0.10000000  1
  Na  Na331  1  0.60000000  0.30000000  0.30000000  1
  Na  Na332  1  0.60000000  0.30000000  0.50000000  1
  Na  Na333  1  0.60000000  0.30000000  0.70000000  1
  Na  Na334  1  0.60000000  0.30000000  0.90000000  1
  Na  Na335  1  0.60000000  0.50000000  0.10000000  1
  Na  Na336  1  0.60000000  0.50000000  0.30000000  1
  Na  Na337  1  0.60000000  0.50000000  0.50000000  1
  Na  Na338  1  0.60000000  0.50000000  0.70000000  1
  Na  Na339  1  0.60000000  0.50000000  0.90000000  1
  Na  Na340  1  0.60000000  0.70000000  0.10000000  1
  Na  Na341  1  0.60000000  0.70000000  0.50000000  1
  Na  Na342  1  0.60000000  0.70000000  0.70000000  1
  Na  Na343  1  0.60000000  0.70000000  0.90000000  1
  Na  Na344  1  0.60000000  0.90000000  0.10000000  1
  Na  Na345  1  0.60000000  0.90000000  0.30000000  1
  Na  Na346  1  0.60000000  0.90000000  0.50000000  1
  Na  Na347  1  0.60000000  0.90000000  0.70000000  1
  Na  Na348  1  0.60000000  0.90000000  0.90000000  1
  Na  Na349  1  0.80000000  0.10000000  0.10000000  1
  Na  Na350  1  0.80000000  0.10000000  0.30000000  1
  Na  Na351  1  0.80000000  0.10000000  0.50000000  1
  Na  Na352  1  0.80000000  0.10000000  0.70000000  1
  Na  Na353  1  0.80000000  0.10000000  0.90000000  1
  Na  Na354  1  0.80000000  0.30000000  0.10000000  1
  Na  Na355  1  0.80000000  0.30000000  0.30000000  1
  Na  Na356  1  0.80000000  0.30000000  0.50000000  1
  Na  Na357  1  0.80000000  0.30000000  0.70000000  1
  Na  Na358  1  0.80000000  0.30000000  0.90000000  1
  Na  Na359  1  0.80000000  0.50000000  0.10000000  1
  Na  Na360  1  0.80000000  0.50000000  0.30000000  1
  Na  Na361  1  0.80000000  0.50000000  0.50000000  1
  Na  Na362  1  0.80000000  0.50000000  0.70000000  1
  Na  Na363  1  0.80000000  0.50000000  0.90000000  1
  Na  Na364  1  0.80000000  0.70000000  0.10000000  1
  Na  Na365  1  0.80000000  0.70000000  0.30000000  1
  Na  Na366  1  0.80000000  0.70000000  0.50000000  1
  Na  Na367  1  0.80000000  0.70000000  0.70000000  1
  Na  Na368  1  0.80000000  0.70000000  0.90000000  1
  Na  Na369  1  0.80000000  0.90000000  0.10000000  1
  Na  Na370  1  0.80000000  0.90000000  0.30000000  1
  Na  Na371  1  0.80000000  0.90000000  0.50000000  1
  Na  Na372  1  0.80000000  0.90000000  0.70000000  1
  Na  Na373  1  0.80000000  0.90000000  0.90000000  1
  O  O374  1  0.10000000  0.10000000  0.10000000  1
  O  O375  1  0.10000000  0.10000000  0.30000000  1
  O  O376  1  0.10000000  0.10000000  0.50000000  1
  O  O377  1  0.10000000  0.10000000  0.70000000  1
  O  O378  1  0.10000000  0.10000000  0.90000000  1
  O  O379  1  0.10000000  0.30000000  0.10000000  1
  O  O380  1  0.10000000  0.30000000  0.30000000  1
  O  O381  1  0.10000000  0.30000000  0.50000000  1
  O  O382  1  0.10000000  0.30000000  0.70000000  1
  O  O383  1  0.10000000  0.30000000  0.90000000  1
  O  O384  1  0.10000000  0.50000000  0.10000000  1
  O  O385  1  0.10000000  0.50000000  0.30000000  1
  O  O386  1  0.10000000  0.50000000  0.50000000  1
  O  O387  1  0.10000000  0.50000000  0.70000000  1
  O  O388  1  0.10000000  0.50000000  0.90000000  1
  O  O389  1  0.10000000  0.70000000  0.10000000  1
  O  O390  1  0.10000000  0.70000000  0.30000000  1
  O  O391  1  0.10000000  0.70000000  0.50000000  1
  O  O392  1  0.10000000  0.70000000  0.70000000  1
  O  O393  1  0.10000000  0.70000000  0.90000000  1
  O  O394  1  0.10000000  0.90000000  0.10000000  1
  O  O395  1  0.10000000  0.90000000  0.30000000  1
  O  O396  1  0.10000000  0.90000000  0.50000000  1
  O  O397  1  0.10000000  0.90000000  0.70000000  1
  O  O398  1  0.10000000  0.90000000  0.90000000  1
  O  O399  1  0.30000000  0.10000000  0.10000000  1
  O  O400  1  0.30000000  0.10000000  0.30000000  1
  O  O401  1  0.30000000  0.10000000  0.50000000  1
  O  O402  1  0.30000000  0.10000000  0.70000000  1
  O  O403  1  0.30000000  0.10000000  0.90000000  1
  O  O404  1  0.30000000  0.30000000  0.10000000  1
  O  O405  1  0.30000000  0.30000000  0.30000000  1
  O  O406  1  0.30000000  0.30000000  0.50000000  1
  O  O407  1  0.30000000  0.30000000  0.70000000  1
  O  O408  1  0.30000000  0.30000000  0.90000000  1
  O  O409  1  0.30000000  0.50000000  0.10000000  1
  O  O410  1  0.30000000  0.50000000  0.30000000  1
  O  O411  1  0.30000000  0.50000000  0.50000000  1
  O  O412  1  0.30000000  0.50000000  0.70000000  1
  O  O413  1  0.30000000  0.50000000  0.90000000  1
  O  O414  1  0.30000000  0.70000000  0.10000000  1
  O  O415  1  0.30000000  0.70000000  0.30000000  1
  O  O416  1  0.30000000  0.70000000  0.50000000  1
  O  O417  1  0.30000000  0.70000000  0.70000000  1
  O  O418  1  0.30000000  0.70000000  0.90000000  1
  O  O419  1  0.30000000  0.90000000  0.10000000  1
  O  O420  1  0.30000000  0.90000000  0.30000000  1
  O  O421  1  0.30000000  0.90000000  0.50000000  1
  O  O422  1  0.30000000  0.90000000  0.70000000  1
  O  O423  1  0.30000000  0.90000000  0.90000000  1
  O  O424  1  0.50000000  0.10000000  0.10000000  1
  O  O425  1  0.50000000  0.10000000  0.30000000  1
  O  O426  1  0.50000000  0.10000000  0.50000000  1
  O  O427  1  0.50000000  0.10000000  0.70000000  1
  O  O428  1  0.50000000  0.10000000  0.90000000  1
  O  O429  1  0.50000000  0.30000000  0.10000000  1
  O  O430  1  0.50000000  0.30000000  0.30000000  1
  O  O431  1  0.50000000  0.30000000  0.50000000  1
  O  O432  1  0.50000000  0.30000000  0.70000000  1
  O  O433  1  0.50000000  0.30000000  0.90000000  1
  O  O434  1  0.50000000  0.50000000  0.10000000  1
  O  O435  1  0.50000000  0.50000000  0.30000000  1
  O  O436  1  0.50000000  0.50000000  0.50000000  1
  O  O437  1  0.50000000  0.50000000  0.70000000  1
  O  O438  1  0.50000000  0.50000000  0.90000000  1
  O  O439  1  0.50000000  0.70000000  0.10000000  1
  O  O440  1  0.50000000  0.70000000  0.30000000  1
  O  O441  1  0.50000000  0.70000000  0.50000000  1
  O  O442  1  0.50000000  0.70000000  0.70000000  1
  O  O443  1  0.50000000  0.70000000  0.90000000  1
  O  O444  1  0.50000000  0.90000000  0.10000000  1
  O  O445  1  0.50000000  0.90000000  0.30000000  1
  O  O446  1  0.50000000  0.90000000  0.50000000  1
  O  O447  1  0.50000000  0.90000000  0.70000000  1
  O  O448  1  0.50000000  0.90000000  0.90000000  1
  O  O449  1  0.70000000  0.10000000  0.10000000  1
  O  O450  1  0.70000000  0.10000000  0.30000000  1
  O  O451  1  0.70000000  0.10000000  0.50000000  1
  O  O452  1  0.70000000  0.10000000  0.70000000  1
  O  O453  1  0.70000000  0.10000000  0.90000000  1
  O  O454  1  0.70000000  0.30000000  0.10000000  1
  O  O455  1  0.70000000  0.30000000  0.30000000  1
  O  O456  1  0.70000000  0.30000000  0.50000000  1
  O  O457  1  0.70000000  0.30000000  0.70000000  1
  O  O458  1  0.70000000  0.30000000  0.90000000  1
  O  O459  1  0.70000000  0.50000000  0.10000000  1
  O  O460  1  0.70000000  0.50000000  0.30000000  1
  O  O461  1  0.70000000  0.50000000  0.50000000  1
  O  O462  1  0.70000000  0.50000000  0.70000000  1
  O  O463  1  0.70000000  0.50000000  0.90000000  1
  O  O464  1  0.70000000  0.70000000  0.10000000  1
  O  O465  1  0.70000000  0.70000000  0.30000000  1
  O  O466  1  0.70000000  0.70000000  0.50000000  1
  O  O467  1  0.70000000  0.70000000  0.70000000  1
  O  O468  1  0.70000000  0.70000000  0.90000000  1
  O  O469  1  0.70000000  0.90000000  0.10000000  1
  O  O470  1  0.70000000  0.90000000  0.30000000  1
  O  O471  1  0.70000000  0.90000000  0.50000000  1
  O  O472  1  0.70000000  0.90000000  0.70000000  1
  O  O473  1  0.70000000  0.90000000  0.90000000  1
  O  O474  1  0.90000000  0.10000000  0.10000000  1
  O  O475  1  0.90000000  0.10000000  0.30000000  1
  O  O476  1  0.90000000  0.10000000  0.50000000  1
  O  O477  1  0.90000000  0.10000000  0.70000000  1
  O  O478  1  0.90000000  0.10000000  0.90000000  1
  O  O479  1  0.90000000  0.30000000  0.10000000  1
  O  O480  1  0.90000000  0.30000000  0.30000000  1
  O  O481  1  0.90000000  0.30000000  0.50000000  1
  O  O482  1  0.90000000  0.30000000  0.70000000  1
  O  O483  1  0.90000000  0.30000000  0.90000000  1
  O  O484  1  0.90000000  0.50000000  0.10000000  1
  O  O485  1  0.90000000  0.50000000  0.30000000  1
  O  O486  1  0.90000000  0.50000000  0.50000000  1
  O  O487  1  0.90000000  0.50000000  0.70000000  1
  O  O488  1  0.90000000  0.50000000  0.90000000  1
  O  O489  1  0.90000000  0.70000000  0.10000000  1
  O  O490  1  0.90000000  0.70000000  0.30000000  1
  O  O491  1  0.90000000  0.70000000  0.50000000  1
  O  O492  1  0.90000000  0.70000000  0.70000000  1
  O  O493  1  0.90000000  0.70000000  0.90000000  1
  O  O494  1  0.90000000  0.90000000  0.10000000  1
  O  O495  1  0.90000000  0.90000000  0.30000000  1
  O  O496  1  0.90000000  0.90000000  0.50000000  1
  O  O497  1  0.90000000  0.90000000  0.70000000  1
  O  O498  1  0.90000000  0.90000000  0.90000000  1
  Cl  Cl499  1  0.00000000  0.00000000  0.00000000  1
  Cl  Cl500  1  0.00000000  0.00000000  0.20000000  1
  Cl  Cl501  1  0.00000000  0.00000000  0.40000000  1
  Cl  Cl502  1  0.00000000  0.00000000  0.60000000  1
  Cl  Cl503  1  0.00000000  0.00000000  0.80000000  1
  Cl  Cl504  1  0.00000000  0.20000000  0.00000000  1
  Cl  Cl505  1  0.00000000  0.20000000  0.20000000  1
  Cl  Cl506  1  0.00000000  0.20000000  0.40000000  1
  Cl  Cl507  1  0.00000000  0.20000000  0.60000000  1
  Cl  Cl508  1  0.00000000  0.20000000  0.80000000  1
  Cl  Cl509  1  0.00000000  0.40000000  0.00000000  1
  Cl  Cl510  1  0.00000000  0.40000000  0.20000000  1
  Cl  Cl511  1  0.00000000  0.40000000  0.40000000  1
  Cl  Cl512  1  0.00000000  0.40000000  0.60000000  1
  Cl  Cl513  1  0.00000000  0.40000000  0.80000000  1
  Cl  Cl514  1  0.00000000  0.60000000  0.00000000  1
  Cl  Cl515  1  0.00000000  0.60000000  0.20000000  1
  Cl  Cl516  1  0.00000000  0.60000000  0.40000000  1
  Cl  Cl517  1  0.00000000  0.60000000  0.60000000  1
  Cl  Cl518  1  0.00000000  0.60000000  0.80000000  1
  Cl  Cl519  1  0.00000000  0.80000000  0.00000000  1
  Cl  Cl520  1  0.00000000  0.80000000  0.20000000  1
  Cl  Cl521  1  0.00000000  0.80000000  0.40000000  1
  Cl  Cl522  1  0.00000000  0.80000000  0.60000000  1
  Cl  Cl523  1  0.00000000  0.80000000  0.80000000  1
  Cl  Cl524  1  0.20000000  0.00000000  0.00000000  1
  Cl  Cl525  1  0.20000000  0.00000000  0.20000000  1
  Cl  Cl526  1  0.20000000  0.00000000  0.40000000  1
  Cl  Cl527  1  0.20000000  0.00000000  0.60000000  1
  Cl  Cl528  1  0.20000000  0.00000000  0.80000000  1
  Cl  Cl529  1  0.20000000  0.20000000  0.00000000  1
  Cl  Cl530  1  0.20000000  0.20000000  0.20000000  1
  Cl  Cl531  1  0.20000000  0.20000000  0.40000000  1
  Cl  Cl532  1  0.20000000  0.20000000  0.60000000  1
  Cl  Cl533  1  0.20000000  0.20000000  0.80000000  1
  Cl  Cl534  1  0.20000000  0.40000000  0.00000000  1
  Cl  Cl535  1  0.20000000  0.40000000  0.20000000  1
  Cl  Cl536  1  0.20000000  0.40000000  0.40000000  1
  Cl  Cl537  1  0.20000000  0.40000000  0.60000000  1
  Cl  Cl538  1  0.20000000  0.40000000  0.80000000  1
  Cl  Cl539  1  0.20000000  0.60000000  0.00000000  1
  Cl  Cl540  1  0.20000000  0.60000000  0.20000000  1
  Cl  Cl541  1  0.20000000  0.60000000  0.40000000  1
  Cl  Cl542  1  0.20000000  0.60000000  0.60000000  1
  Cl  Cl543  1  0.20000000  0.60000000  0.80000000  1
  Cl  Cl544  1  0.20000000  0.80000000  0.00000000  1
  Cl  Cl545  1  0.20000000  0.80000000  0.20000000  1
  Cl  Cl546  1  0.20000000  0.80000000  0.40000000  1
  Cl  Cl547  1  0.20000000  0.80000000  0.60000000  1
  Cl  Cl548  1  0.20000000  0.80000000  0.80000000  1
  Cl  Cl549  1  0.40000000  0.00000000  0.00000000  1
  Cl  Cl550  1  0.40000000  0.00000000  0.20000000  1
  Cl  Cl551  1  0.40000000  0.00000000  0.40000000  1
  Cl  Cl552  1  0.40000000  0.00000000  0.60000000  1
  Cl  Cl553  1  0.40000000  0.00000000  0.80000000  1
  Cl  Cl554  1  0.40000000  0.20000000  0.00000000  1
  Cl  Cl555  1  0.40000000  0.20000000  0.20000000  1
  Cl  Cl556  1  0.40000000  0.20000000  0.40000000  1
  Cl  Cl557  1  0.40000000  0.20000000  0.60000000  1
  Cl  Cl558  1  0.40000000  0.20000000  0.80000000  1
  Cl  Cl559  1  0.40000000  0.40000000  0.00000000  1
  Cl  Cl560  1  0.40000000  0.40000000  0.20000000  1
  Cl  Cl561  1  0.40000000  0.40000000  0.40000000  1
  Cl  Cl562  1  0.40000000  0.40000000  0.60000000  1
  Cl  Cl563  1  0.40000000  0.40000000  0.80000000  1
  Cl  Cl564  1  0.40000000  0.60000000  0.00000000  1
  Cl  Cl565  1  0.40000000  0.60000000  0.20000000  1
  Cl  Cl566  1  0.40000000  0.60000000  0.40000000  1
  Cl  Cl567  1  0.40000000  0.60000000  0.60000000  1
  Cl  Cl568  1  0.40000000  0.60000000  0.80000000  1
  Cl  Cl569  1  0.40000000  0.80000000  0.00000000  1
  Cl  Cl570  1  0.40000000  0.80000000  0.20000000  1
  Cl  Cl571  1  0.40000000  0.80000000  0.40000000  1
  Cl  Cl572  1  0.40000000  0.80000000  0.60000000  1
  Cl  Cl573  1  0.40000000  0.80000000  0.80000000  1
  Cl  Cl574  1  0.60000000  0.00000000  0.00000000  1
  Cl  Cl575  1  0.60000000  0.00000000  0.20000000  1
  Cl  Cl576  1  0.60000000  0.00000000  0.40000000  1
  Cl  Cl577  1  0.60000000  0.00000000  0.60000000  1
  Cl  Cl578  1  0.60000000  0.00000000  0.80000000  1
  Cl  Cl579  1  0.60000000  0.20000000  0.00000000  1
  Cl  Cl580  1  0.60000000  0.20000000  0.20000000  1
  Cl  Cl581  1  0.60000000  0.20000000  0.40000000  1
  Cl  Cl582  1  0.60000000  0.20000000  0.60000000  1
  Cl  Cl583  1  0.60000000  0.20000000  0.80000000  1
  Cl  Cl584  1  0.60000000  0.40000000  0.00000000  1
  Cl  Cl585  1  0.60000000  0.40000000  0.20000000  1
  Cl  Cl586  1  0.60000000  0.40000000  0.40000000  1
  Cl  Cl587  1  0.60000000  0.40000000  0.60000000  1
  Cl  Cl588  1  0.60000000  0.40000000  0.80000000  1
  Cl  Cl589  1  0.60000000  0.60000000  0.00000000  1
  Cl  Cl590  1  0.60000000  0.60000000  0.20000000  1
  Cl  Cl591  1  0.60000000  0.60000000  0.40000000  1
  Cl  Cl592  1  0.60000000  0.60000000  0.60000000  1
  Cl  Cl593  1  0.60000000  0.60000000  0.80000000  1
  Cl  Cl594  1  0.60000000  0.80000000  0.00000000  1
  Cl  Cl595  1  0.60000000  0.80000000  0.20000000  1
  Cl  Cl596  1  0.60000000  0.80000000  0.40000000  1
  Cl  Cl597  1  0.60000000  0.80000000  0.60000000  1
  Cl  Cl598  1  0.60000000  0.80000000  0.80000000  1
  Cl  Cl599  1  0.80000000  0.00000000  0.00000000  1
  Cl  Cl600  1  0.80000000  0.00000000  0.20000000  1
  Cl  Cl601  1  0.80000000  0.00000000  0.40000000  1
  Cl  Cl602  1  0.80000000  0.00000000  0.60000000  1
  Cl  Cl603  1  0.80000000  0.00000000  0.80000000  1
  Cl  Cl604  1  0.80000000  0.20000000  0.00000000  1
  Cl  Cl605  1  0.80000000  0.20000000  0.20000000  1
  Cl  Cl606  1  0.80000000  0.20000000  0.40000000  1
  Cl  Cl607  1  0.80000000  0.20000000  0.60000000  1
  Cl  Cl608  1  0.80000000  0.20000000  0.80000000  1
  Cl  Cl609  1  0.80000000  0.40000000  0.00000000  1
  Cl  Cl610  1  0.80000000  0.40000000  0.20000000  1
  Cl  Cl611  1  0.80000000  0.40000000  0.40000000  1
  Cl  Cl612  1  0.80000000  0.40000000  0.60000000  1
  Cl  Cl613  1  0.80000000  0.40000000  0.80000000  1
  Cl  Cl614  1  0.80000000  0.60000000  0.00000000  1
  Cl  Cl615  1  0.80000000  0.60000000  0.20000000  1
  Cl  Cl616  1  0.80000000  0.60000000  0.40000000  1
  Cl  Cl617  1  0.80000000  0.60000000  0.60000000  1
  Cl  Cl618  1  0.80000000  0.60000000  0.80000000  1
  Cl  Cl619  1  0.80000000  0.80000000  0.00000000  1
  Cl  Cl620  1  0.80000000  0.80000000  0.20000000  1
  Cl  Cl621  1  0.80000000  0.80000000  0.40000000  1
  Cl  Cl622  1  0.80000000  0.80000000  0.60000000  1
  Cl  Cl623  1  0.80000000  0.80000000  0.80000000  1
