# generated using pymatgen
data_Na3ClO
_symmetry_space_group_name_H-M   'P 1'
_cell_length_a   13.50300000
_cell_length_b   13.50300000
_cell_length_c   13.50300000
_cell_angle_alpha   90.00000000
_cell_angle_beta   90.00000000
_cell_angle_gamma   90.00000000
_symmetry_Int_Tables_number   1
_chemical_formula_structural   Na3ClO
_chemical_formula_sum   'Na81 Cl27 O27'
_cell_volume   2462.01561453
_cell_formula_units_Z   27
loop_
 _symmetry_equiv_pos_site_id
 _symmetry_equiv_pos_as_xyz
  1  'x, y, z'
loop_
 _atom_site_type_symbol
 _atom_site_label
 _atom_site_symmetry_multiplicity
 _atom_site_fract_x
 _atom_site_fract_y
 _atom_site_fract_z
 _atom_site_occupancy
  Na  Na0  1  0.16666667  0.16666667  0.00000000  1
  Na  Na1  1  0.16666667  0.16666667  0.33333333  1
  Na  Na2  1  0.16666667  0.16666667  0.66666667  1
  Na  Na3  1  0.16666667  0.50000000  0.00000000  1
  Na  Na4  1  0.16666667  0.50000000  0.33333333  1
  Na  Na5  1  0.16666667  0.50000000  0.66666667  1
  Na  Na6  1  0.16666667  0.83333333  0.00000000  1
  Na  Na7  1  0.16666667  0.83333333  0.33333333  1
  Na  Na8  1  0.16666667  0.83333333  0.66666667  1
  Na  Na9  1  0.50000000  0.16666667  0.00000000  1
  Na  Na10  1  0.50000000  0.16666667  0.33333333  1
  Na  Na11  1  0.50000000  0.16666667  0.66666667  1
  Na  Na12  1  0.50000000  0.50000000  0.00000000  1
  Na  Na13  1  0.50000000  0.50000000  0.33333333  1
  Na  Na14  1  0.50000000  0.50000000  0.66666667  1
  Na  Na15  1  0.50000000  0.83333333  0.00000000  1
  Na  Na16  1  0.50000000  0.83333333  0.33333333  1
  Na  Na17  1  0.50000000  0.83333333  0.66666667  1
  Na  Na18  1  0.83333333  0.16666667  0.00000000  1
  Na  Na19  1  0.83333333  0.16666667  0.33333333  1
  Na  Na20  1  0.83333333  0.16666667  0.66666667  1
  Na  Na21  1  0.83333333  0.50000000  0.00000000  1
  Na  Na22  1  0.83333333  0.50000000  0.33333333  1
  Na  Na23  1  0.83333333  0.50000000  0.66666667  1
  Na  Na24  1  0.83333333  0.83333333  0.00000000  1
  Na  Na25  1  0.83333333  0.83333333  0.33333333  1
  Na  Na26  1  0.83333333  0.83333333  0.66666667  1
  Na  Na27  1  0.16666667  0.00000000  0.16666667  1
  Na  Na28  1  0.16666667  0.00000000  0.50000000  1
  Na  Na29  1  0.16666667  0.00000000  0.83333333  1
  Na  Na30  1  0.16666667  0.33333333  0.16666667  1
  Na  Na31  1  0.16666667  0.33333333  0.50000000  1
  Na  Na32  1  0.16666667  0.33333333  0.83333333  1
  Na  Na33  1  0.16666667  0.66666667  0.16666667  1
  Na  Na34  1  0.16666667  0.66666667  0.50000000  1
  Na  Na35  1  0.16666667  0.66666667  0.83333333  1
  Na  Na36  1  0.50000000  0.00000000  0.16666667  1
  Na  Na37  1  0.50000000  0.00000000  0.50000000  1
  Na  Na38  1  0.50000000  0.00000000  0.83333333  1
  Na  Na39  1  0.50000000  0.33333333  0.16666667  1
  Na  Na40  1  0.50000000  0.33333333  0.50000000  1
  Na  Na41  1  0.50000000  0.33333333  0.83333333  1
  Na  Na42  1  0.50000000  0.66666667  0.16666667  1
  Na  Na43  1  0.50000000  0.66666667  0.50000000  1
  Na  Na44  1  0.50000000  0.66666667  0.83333333  1
  Na  Na45  1  0.83333333  0.00000000  0.16666667  1
  Na  Na46  1  0.83333333  0.00000000  0.50000000  1
  Na  Na47  1  0.83333333  0.00000000  0.83333333  1
  Na  Na48  1  0.83333333  0.33333333  0.16666667  1
  Na  Na49  1  0.83333333  0.33333333  0.50000000  1
  Na  Na50  1  0.83333333  0.33333333  0.83333333  1
  Na  Na51  1  0.83333333  0.66666667  0.16666667  1
  Na  Na52  1  0.83333333  0.66666667  0.50000000  1
  Na  Na53  1  0.83333333  0.66666667  0.83333333  1
  Na  Na54  1  0.00000000  0.16666667  0.16666667  1
  Na  Na55  1  0.00000000  0.16666667  0.50000000  1
  Na  Na56  1  0.00000000  0.16666667  0.83333333  1
  Na  Na57  1  0.00000000  0.50000000  0.16666667  1
  Na  Na58  1  0.00000000  0.50000000  0.50000000  1
  Na  Na59  1  0.00000000  0.50000000  0.83333333  1
  Na  Na60  1  0.00000000  0.83333333  0.16666667  1
  Na  Na61  1  0.00000000  0.83333333  0.50000000  1
  Na  Na62  1  0.00000000  0.83333333  0.83333333  1
  Na  Na63  1  0.33333333  0.16666667  0.16666667  1
  Na  Na64  1  0.33333333  0.16666667  0.50000000  1
  Na  Na65  1  0.33333333  0.16666667  0.83333333  1
  Na  Na66  1  0.33333333  0.50000000  0.16666667  1
  Na  Na67  1  0.33333333  0.50000000  0.50000000  1
  Na  Na68  1  0.33333333  0.50000000  0.83333333  1
  Na  Na69  1  0.33333333  0.83333333  0.16666667  1
  Na  Na70  1  0.33333333  0.83333333  0.50000000  1
  Na  Na71  1  0.33333333  0.83333333  0.83333333  1
  Na  Na72  1  0.66666667  0.16666667  0.16666667  1
  Na  Na73  1  0.66666667  0.16666667  0.50000000  1
  Na  Na74  1  0.66666667  0.16666667  0.83333333  1
  Na  Na75  1  0.66666667  0.50000000  0.16666667  1
  Na  Na76  1  0.66666667  0.50000000  0.50000000  1
  Na  Na77  1  0.66666667  0.50000000  0.83333333  1
  Na  Na78  1  0.66666667  0.83333333  0.16666667  1
  Na  Na79  1  0.66666667  0.83333333  0.50000000  1
  Na  Na80  1  0.66666667  0.83333333  0.83333333  1
  O  O81  1  0.16666667  0.16666667  0.16666667  1
  O  O82  1  0.16666667  0.16666667  0.50000000  1
  O  O83  1  0.16666667  0.16666667  0.83333333  1
  O  O84  1  0.16666667  0.50000000  0.16666667  1
  O  O85  1  0.16666667  0.50000000  0.50000000  1
  O  O86  1  0.16666667  0.50000000  0.83333333  1
  O  O87  1  0.16666667  0.83333333  0.16666667  1
  O  O88  1  0.16666667  0.83333333  0.50000000  1
  O  O89  1  0.16666667  0.83333333  0.83333333  1
  O  O90  1  0.50000000  0.16666667  0.16666667  1
  O  O91  1  0.50000000  0.16666667  0.50000000  1
  O  O92  1  0.50000000  0.16666667  0.83333333  1
  O  O93  1  0.50000000  0.50000000  0.16666667  1
  O  O94  1  0.50000000  0.50000000  0.50000000  1
  O  O95  1  0.50000000  0.50000000  0.83333333  1
  O  O96  1  0.50000000  0.83333333  0.16666667  1
  O  O97  1  0.50000000  0.83333333  0.50000000  1
  O  O98  1  0.50000000  0.83333333  0.83333333  1
  O  O99  1  0.83333333  0.16666667  0.16666667  1
  O  O100  1  0.83333333  0.16666667  0.50000000  1
  O  O101  1  0.83333333  0.16666667  0.83333333  1
  O  O102  1  0.83333333  0.50000000  0.16666667  1
  O  O103  1  0.83333333  0.50000000  0.50000000  1
  O  O104  1  0.83333333  0.50000000  0.83333333  1
  O  O105  1  0.83333333  0.83333333  0.16666667  1
  O  O106  1  0.83333333  0.83333333  0.50000000  1
  O  O107  1  0.83333333  0.83333333  0.83333333  1
  Cl  Cl108  1  0.00000000  0.00000000  0.00000000  1
  Cl  Cl109  1  0.00000000  0.00000000  0.33333333  1
  Cl  Cl110  1  0.00000000  0.00000000  0.66666667  1
  Cl  Cl111  1  0.00000000  0.33333333  0.00000000  1
  Cl  Cl112  1  0.00000000  0.33333333  0.33333333  1
  Cl  Cl113  1  0.00000000  0.33333333  0.66666667  1
  Cl  Cl114  1  0.00000000  0.66666667  0.00000000  1
  Cl  Cl115  1  0.00000000  0.66666667  0.33333333  1
  Cl  Cl116  1  0.00000000  0.66666667  0.66666667  1
  Cl  Cl117  1  0.33333333  0.00000000  0.00000000  1
  Cl  Cl118  1  0.33333333  0.00000000  0.33333333  1
  Cl  Cl119  1  0.33333333  0.00000000  0.66666667  1
  Cl  Cl120  1  0.33333333  0.33333333  0.00000000  1
  Cl  Cl121  1  0.33333333  0.33333333  0.33333333  1
  Cl  Cl122  1  0.33333333  0.33333333  0.66666667  1
  Cl  Cl123  1  0.33333333  0.66666667  0.00000000  1
  Cl  Cl124  1  0.33333333  0.66666667  0.33333333  1
  Cl  Cl125  1  0.33333333  0.66666667  0.66666667  1
  Cl  Cl126  1  0.66666667  0.00000000  0.00000000  1
  Cl  Cl127  1  0.66666667  0.00000000  0.33333333  1
  Cl  Cl128  1  0.66666667  0.00000000  0.66666667  1
  Cl  Cl129  1  0.66666667  0.33333333  0.00000000  1
  Cl  Cl130  1  0.66666667  0.33333333  0.33333333  1
  Cl  Cl131  1  0.66666667  0.33333333  0.66666667  1
  Cl  Cl132  1  0.66666667  0.66666667  0.00000000  1
  Cl  Cl133  1  0.66666667  0.66666667  0.33333333  1
  Cl  Cl134  1  0.66666667  0.66666667  0.66666667  1
